9
-97208.4060049824
C	0.0072	-0.5687	0.0	1.4517297437249999	6.01923561735	5.2067503058e-07
C	-1.2854	0.2499	0.0	17.9533587683	-5.1623821924	3.49002255005e-07
O	1.1304	0.3147	0.0	-4.0883694515	22.5901955842	3.30876819905e-06
H	0.0392	-1.1972	0.89	-1.141572648295	-9.7469181345	7.64734244805
H	0.0392	-1.1972	-0.89	-1.141572648295	-9.7469181345	-7.64734244805
H	-1.3175	0.8784	0.89	-2.48205465155	4.933531278999999	4.3699824457
H	-1.3175	0.8784	-0.89	-2.48205465155	4.933531278999999	-4.3699824457
H	-2.1422	-0.4239	0.0	-5.5147904611	-3.0206752464999997	-8.9092739811e-09
H	1.9857	-0.1365	0.0	-2.4392777023	-10.83820307755	-6.07213606025e-08
