12
-146536.1068
C	0.0	1.397	0.0	4.7384784e-11	-3.8259648	-6.717196799999999e-13
C	1.2098	0.6985	0.0	-3.249288	-1.9418976000000001	-3.4314912e-13
C	1.2098	-0.6985	0.0	-3.249288	1.9418976000000001	6.6741696e-13
C	0.0	-1.397	0.0	2.8316879999999998e-11	3.8259648	-1.7098128e-12
C	-1.2098	-0.6985	0.0	3.249288	1.9418976000000001	9.378431999999998e-13
C	-1.2098	0.6985	0.0	3.249288	-1.9418976000000001	-1.7085167999999998e-12
H	0.0	2.481	0.0	-1.12612032e-11	6.0447456	6.7398336e-13
H	2.1486	1.2405	0.0	5.2187472	3.012624	4.1946912e-14
H	2.1486	-1.2405	0.0	5.2187472	-3.012624	4.7321136e-13
H	0.0	-2.481	0.0	-4.1629392e-12	-6.0447456	5.071233600000001e-13
H	-2.1486	-1.2405	0.0	-5.2187472	-3.012624	7.202952e-14
H	-2.1486	1.2405	0.0	-5.2187472	3.012624	1.05965424e-12
